<edges>
    <edge from="1" id="1to2" to="2"  numLanes="1"  speed="130" priority="1"/>
    <edge from="4" id="4to2" to="2"  numLanes="1"  speed="130" priority="-1"/>
    <edge from="2" id="2to3" to="3"  numLanes="1"  speed="130" priority="1"/>
</edges>