<nodes>
    <node id="1" x="0.0" y="0.0" />
    <node id="2" x="500.0" y="0.0" />
    <node id="3" x="700.0" y="0.0" />
    <node id="4" x="17.04" y="-129.41" />
</nodes>