<!--
<routes>
    <vType id="type1"  sigma="0.5" length="4.5" maxSpeed="130" mass="750" carFollowModel="IDM" laneChangeModel="LC2013"/>
    <vType id="type2"  sigma="0.5" length="4.5" maxSpeed="130" mass="750" carFollowModel="IDM" laneChangeModel="LC2013"/>

    <route id="route0" color="1,1,0" edges="1to2 2to3" priority="1"/>
    <route id="route1" color="1,0,0" edges="4to2 2to3" priority="-1"/>

    <vehicle id="vehicle1" type="type1" route="route0" depart="0.0" departSpeed="20" color="1,0,0"/>
    <vehicle id="vehicle2" type="type1" route="route0" depart="1.2" departSpeed="20" color="1,0,0"/>
    <vehicle id="vehicle4" type="type2" route="route1" depart="1.6" departSpeed="15" color="0,1,0"/>
    <vehicle id="vehicle3" type="type1" route="route0" depart="2.4" departSpeed="20" color="1,0,0"/>
    <vehicle id="vehicle5" type="type2" route="route1" depart="2.6" departSpeed="15" color="0,1,0"/>

    <vehicle id="vehicle6" type="type1" route="route0" depart="7.2" departSpeed="20" color="1,0,0"/>
    <vehicle id="vehicle7" type="type1" route="route0" depart="8.4" departSpeed="20" color="1,0,0"/>
    <vehicle id="vehicle8" type="type1" route="route0" depart="9.6" departSpeed="20" color="1,0,0"/>
    <vehicle id="vehicle9" type="type2" route="route1" depart="9.8" departSpeed="15" color="0,1,0"/>

    <vehicle id="vehicle10" type="type1" route="route0" depart="14.0" departSpeed="20" color="1,0,0"/>
    <vehicle id="vehicle11" type="type1" route="route0" depart="15.2" departSpeed="20" color="1,0,0"/>
    <vehicle id="vehicle12" type="type2" route="route1" depart="15.4" departSpeed="15" color="0,1,0"/>

    <vehicle id="vehicle13" type="type1" route="route0" depart="20.6" departSpeed="20" color="1,0,0"/>
    <vehicle id="vehicle14" type="type1" route="route0" depart="21.8" departSpeed="20" color="1,0,0"/>
    <vehicle id="vehicle15" type="type1" route="route0" depart="23.0" departSpeed="20" color="1,0,0"/>
    <vehicle id="vehicle16" type="type1" route="route0" depart="24.2" departSpeed="20" color="1,0,0"/>
    <vehicle id="vehicle19" type="type2" route="route1" depart="24.2" departSpeed="15" color="0,1,0"/
    <vehicle id="vehicle17" type="type1" route="route0" depart="25.4" departSpeed="20" color="1,0,0"/>
    <vehicle id="vehicle20" type="type2" route="route1" depart="25.4" departSpeed="15" color="0,1,0"/>
    <vehicle id="vehicle18" type="type1" route="route0" depart="26.5" departSpeed="20" color="1,0,0"/>
    <vehicle id="vehicle21" type="type2" route="route1" depart="26.5" departSpeed="15" color="0,1,0"/>

    <vehicle id="vehicle22" type="type1" route="route0" depart="31.4" departSpeed="20" color="1,0,0"/>
    <vehicle id="vehicle23" type="type1" route="route0" depart="32.6" departSpeed="20" color="1,0,0"/>
    <vehicle id="vehicle24" type="type1" route="route0" depart="33.8" departSpeed="20" color="1,0,0"/>
    <vehicle id="vehicle25" type="type1" route="route0" depart="34.9" departSpeed="20" color="1,0,0"/>
    <vehicle id="vehicle28" type="type2" route="route1" depart="34.9" departSpeed="15" color="0,1,0"/>
    <vehicle id="vehicle26" type="type1" route="route0" depart="36.0" departSpeed="20" color="1,0,0"/>
    <vehicle id="vehicle29" type="type2" route="route1" depart="36.0" departSpeed="15" color="0,1,0"/>
    <vehicle id="vehicle27" type="type1" route="route0" depart="37.2" departSpeed="20" color="1,0,0"/>
    <vehicle id="vehicle30" type="type2" route="route1" depart="37.2" departSpeed="15" color="0,1,0"/>
</routes>
>-->

<routes>
    <vType id="type1"  sigma="0.5" length="4.5" maxSpeed="130" mass="750" carFollowModel="IDM" laneChangeModel="LC2013"/>
    <vType id="type2"  sigma="0.5" length="4.5" maxSpeed="130" mass="750" carFollowModel="IDM" laneChangeModel="LC2013"/>

    <route id="route0" color="1,1,0" edges="1to2 2to3"/>
    <route id="route1" color="1,0,0" edges="4to2 2to3"/>

    <vehicle id="vehicle1" type="type1" route="route0" depart="0" departSpeed="20" color="1,0,0"/>
    <vehicle id="vehicle2" type="type2" route="route1" depart="0" departSpeed="20" color="0,1,0"/>

    <vehicle id="vehicle3" type="type1" route="route0" depart="1.8" departSpeed="20" color="1,0,0"/>
    <vehicle id="vehicle4" type="type2" route="route1" depart="1.8" departSpeed="20" color="0,1,0"/>

    <vehicle id="vehicle5" type="type1" route="route0" depart="3.6" departSpeed="20" color="1,0,0"/>
    <vehicle id="vehicle6" type="type2" route="route1" depart="3.6" departSpeed="20" color="0,1,0"/>

    <vehicle id="vehicle7" type="type1" route="route0" depart="5.4" departSpeed="20" color="1,0,0"/>
    <vehicle id="vehicle8" type="type2" route="route1" depart="5.4" departSpeed="20" color="0,1,0"/>

    <vehicle id="vehicle9" type="type1" route="route0" depart="7.2" departSpeed="20" color="1,0,0"/>
    <vehicle id="vehicle10" type="type2" route="route1" depart="7.2" departSpeed="20" color="0,1,0"/>

    <vehicle id="vehicle11" type="type1" route="route0" depart="9.0" departSpeed="20" color="1,0,0"/>
    <vehicle id="vehicle12" type="type2" route="route1" depart="9.0" departSpeed="20" color="0,1,0"/>

    <vehicle id="vehicle13" type="type1" route="route0" depart="10.8" departSpeed="20" color="1,0,0"/>
    <vehicle id="vehicle14" type="type2" route="route1" depart="10.8" departSpeed="20" color="0,1,0"/>

    <vehicle id="vehicle15" type="type1" route="route0" depart="12.6" departSpeed="20" color="1,0,0"/>
    <vehicle id="vehicle16" type="type2" route="route1" depart="12.6" departSpeed="20" color="0,1,0"/>

    <vehicle id="vehicle17" type="type1" route="route0" depart="14.4" departSpeed="20" color="1,0,0"/>
    <vehicle id="vehicle18" type="type2" route="route1" depart="14.4" departSpeed="20" color="0,1,0"/>

    <vehicle id="vehicle19" type="type1" route="route0" depart="16.2" departSpeed="20" color="1,0,0"/>
    <vehicle id="vehicle20" type="type2" route="route1" depart="16.2" departSpeed="20" color="0,1,0"/>

    <vehicle id="vehicle21" type="type1" route="route0" depart="18.0" departSpeed="20" color="1,0,0"/>
    <vehicle id="vehicle22" type="type2" route="route1" depart="18.0" departSpeed="20" color="0,1,0"/>

    <vehicle id="vehicle23" type="type1" route="route0" depart="19.8" departSpeed="20" color="1,0,0"/>
    <vehicle id="vehicle24" type="type2" route="route1" depart="19.8" departSpeed="20" color="0,1,0"/>

    <vehicle id="vehicle25" type="type1" route="route0" depart="21.6" departSpeed="20" color="1,0,0"/>
    <vehicle id="vehicle26" type="type2" route="route1" depart="21.6" departSpeed="20" color="0,1,0"/>

    <vehicle id="vehicle27" type="type1" route="route0" depart="23.4" departSpeed="20" color="1,0,0"/>
    <vehicle id="vehicle28" type="type2" route="route1" depart="23.4" departSpeed="20" color="0,1,0"/>

    <vehicle id="vehicle29" type="type1" route="route0" depart="25.2" departSpeed="20" color="1,0,0"/>
    <vehicle id="vehicle30" type="type2" route="route1" depart="25.2" departSpeed="20" color="0,1,0"/>
</routes>