<configuration>
    <input>
        <net-file value="depart_road.net.xml"/>
        <route-files value="depart_road.rou.xml"/>
                <gui-settings-file value="depart_road.settings.xml"/>
    </input>
    <time>
        <begin value="0"/>
        <end value="70"/> 
        <step-length value="0.001"/> 
    </time>
    <output>
    <write-license value="true"/>
    <tripinfo-output value="tripinfos.xml"/>
    <fcd-output value="fcd.xml"/>
    </output>
</configuration>